TABARD
TABLAS
TABLED
TABLES
TABLET
TABOOS
TABORS
TABRIZ
TABSET
TABULA
TACKLE
TACKON
TACOMA
TACTIC
TAGGED
TAHINI
TAHITI
TAHOES
TAICHI
TAILED
TAILOR
TAINTS
TAIPAN
TAIPEI
TAIWAN
TAKEIN
TAKEIT
TAKEME
TAKEON
TAKERS
TAKETO
TAKEUP
TAKING
TALCUM
TALENT
TALESE
TALIAS
TALKED
TALKER
TALKIE
TALLER
TALLOW
TALMUD
TALONS
TAMALE
TAMARA
TAMERS
TAMEST
TAMILS
TAMINO
TAMPED
TAMPER
TAMPON
TAMTAM
TANAKA
TANDEM
TANGLE
TANGOS
TANKED
TANKER
TANNED
TANNER
TANNIC
TANNIN
TANTES
TANTRA
TANYAS
TAOISM
TAOIST
TAPERS
TAPING
TAPINS
TAPIRS
TAPOUT
TAPPAN
TAPPED
TAPTAP
TARARA
TARDES
TARDIS
TARGET
TARIFF
TARMAC
TAROTS
TARPIT
TARPON
TARRED
TARSAL
TARSUS
TARTAN
TARTAR
TARZAN
TARZAN
TASERS
TASMAN
TASSEL
TASSES
TASTED
TASTER
TASTES
TATAMI
TATARS
TATERS
TATTER
TATTLE
TATTOO
TAUGHT
TAUNTS
TAUPES
TAURUS
TAUTEN
TAVERN
TAWDRY
TAXACT
TAXCUT
TAXERS
TAXIED
TAXMAN
TAYLOR
TBTEST
TBILLS
TBIRDS
TBONED
TBONES
TCELLS
TEABAG
TEACUP
TEAMED
TEAMUP
TEAPOT
TEARAT
TEARED
TEARUP
TEASED
TEASEL
TEASER
TEASES
TEASET
TEATAX
TEATRO
TEBOWS
TECHIE
TECHNO
TEDDYS
TEDIUM
TEEHEE
TEEMED
TEENER
TEENIE
TEENSY
TEEOFF
TEEPEE
TEETER
TEETHE
TEEVEE
TEFLON
TEHEES
TEHRAN
TEJANO
TEKWAR
TELCOS
TELLER
TELLME
TELLON
TELNET
TEMPER
TEMPLE
TEMPOS
TEMPTS
TENACE
TENANT
TENDED
TENDER
TENDON
TENDTO
TENETS
TENHUT
TENNER
TENNIS
TENONS
TENORS
TENPIN
TENSED
TENSER
TENSES
TENSOR
TENTED
TENTHS
TENURE
TEPEES
TERCEL
TERESA
TERMED
TERRAS
TERRES
TERRIS
TERROR
TERRYS
TERSER
TESLAS
TESORO
TESSAS
TESTED
TESTEE
TESTER
TETHER
TETLEY
TETONS
TETRAD
TETRAS
TETRIS
TEUTON
TEXACO
TEXANS
TEXASS
TEXTER
THALIA
THAMES
THANES
THANKS
THATCH
THATIS
THATSO
THAWED
THEGOP
THEVET
THEBAR
THEBES
THEDOW
THEEND
THEFAN
THEFED
THEFTS
THEGAP
THEHUB
THEIRS
THEISM
THEIST
THELAW
THELMA
THELOT
THEMED
THEMES
THEMET
THEMOB
THEMRS
THENCE
THENET
THENFL
THENOD
THEONE
THEORY
THERAM
THERES
THERMO
THERMS
THERON
THESEA
THESES
THESIS
THESON
THETAS
THETOP
THEWEB
THEWHO
THEYLL
THEYRE
THIEFS
THIEVE
THIGHS
THINGS
THINKS
THIRDS
THIRST
THIRTY
THOLES
THOMAS
THONGS
THORAX
THORNS
THORPE
THOUGH
THRACE
THRALL
THRASH
THREAD
THREAT
THREES
THRESH
THRICE
THRIFT
THRILL
THRIVE
THROAT
THROBS
THROES
THRONE
THRONG
THROWN
THROWS
THRUST
THUMBS
THUMPS
THUNKS
THWACK
THWART
THYMES
TIARAS
TIBIAS
TICKER
TICKET
TICKLE
TICTAC
TIDBIT
TIDIED
TIDIER
TIDIES
TIDYUP
TIEBAR
TIEDIN
TIEDUP
TIEDYE
TIEINS
TIEPIN
TIERED
TIEROD
TIERRA
TIESIN
TIESTO
TIESUP
TIEUPS
TIGERS
TIGHTS
TIGRIS
TIKTOK
TILDES
TILERS
TILLED
TILLER
TILSIT
TILTAT
TILTED
TIMBER
TIMBRE
TIMELY
TIMERS
TIMING
TINCAN
TINCTS
TINEAR
TINGES
TINGLE
TINGLY
TINHAT
TINIER
TINKLE
TINMAN
TINORE
TINSEL
TINTED
TINTIN
TIPINS
TIPJAR
TIPOFF
TIPPER
TIPTOE
TIPTOP
TIRADE
TIRANA
TIRANE
TIRING
TISSUE
TITANS
TITHES
TITIAN
TITLED
TITLES
TITTER
TITTLE
TIVOLI
TNOTES
TOAMAN
TOASTS
TOASTY
TOATEE
TOBAGO
TOBOOT
TOCOME
TODATE
TODAYS
TODDLE
TOECAP
TOESIN
TOETAP
TOFFEE
TOGGLE
TOILED
TOILET
TOKENS
TOKERS
TOKLAS
TOLDON
TOLDYA
TOLEDO
TOLIFE
TOLLED
TOLTEC
TOMATO
TOMBOY
TOMBOY
TOMCAT
TOMLIN
TOMTOM
TONERS
TONEUP
TONGAN
TONGAS
TONGUE
TONICS
TONIER
TONING
TONITE
TONKAS
TONNES
TONSIL
TONYAS
TOOBAD
TOOHOT
TOOKIN
TOOKTO
TOOLED
TOOMEY
TOONIE
TOOTLE
TOOTOO
TOPDOG
TOPEKA
TOPGUN
TOPHAT
TOPICS
TOPING
TOPPED
TOPPLE
TOPTEN
TOQUES
TORAHS
TOREAT
TORERO
TOREUP
TORIES
TORINO
TORPOR
TORQUE
TORRES
TORRID
TORSOS
TORTES
TOSSED
TOSSER
TOSSES
TOSSIN
TOSSUP
TOTALS
TOTEMS
TOTERM
TOTERS
TOTTER
TOUCAN
TOUCHE
TOUCHY
TOUGHS
TOUPEE
TOURED
TOUSLE
TOUTED
TOWARD
TOWELS
TOWERS
TOWNES
TOWNIE
TOXINS
TOYBOX
TOYCAR
TOYOTA
TRACED
TRACER
TRACES
TRACEY
TRACKS
TRACTS
TRACYS
TRADED
TRADER
TRADES
TRAGIC
TRAILS
TRAINS
TRAITS
TRALEE
TRAMPS
TRANCE
TRASHY
TRAUMA
TRAVEL
TRAVIS
TRAWLS
TREADS
TREATS
TREATY
TREBEK
TREBLE
TREMOR
TRENCH
TRENDS
TRENDY
TRENTE
TREPAN
TREVOR
TRIADS
TRIAGE
TRIALS
TRIBAL
TRIBES
TRICES
TRICIA
TRICKS
TRICKY
TRICOT
TRIERS
TRIFLE
TRIKES
TRILLS
TRINES
TRIODE
TRIPLE
TRIPOD
TRIPUP
TRISHA
TRISTE
TRITON
TRIUNE
TRIVET
TRIVIA
TRIXIE
TROCHE
TROIKA
TROJAN
TROLLS
TROMPE
TROOPS
TROPES
TROPHY
TROPIC
TROUGH
TROUPE
TROUTS
TROVES
TROWEL
TRUANT
TRUCES
TRUCKS
TRUDGE
TRUEST
TRUETO
TRUISM
TRUMAN
TRUMPS
TRUNKS
TRUSTS
TRUSTY
TRUTHS
TRYFOR
TRYFOR
TRYING
TRYONE
TRYONS
TRYOUT
TRYSTS
TSETSE
TSGARP
TSHIRT
TSKTSK
TSTRAP
TUBERS
TUCKED
TUCKER
TUCSON
TUDORS
TUFTED
TULANE
TULIPS
TULLES
TULSAN
TUMBLR
TUMULT
TUNDRA
TUNEIN
TUNERS
TUNEUP
TUNICS
TUNING
TUNNEL
TUPELO
TURBAN
TURBOS
TUREEN
TURKEY
TURKIC
TURNED
TURNER
TURNIN
TURNIP
TURNON
TURRET
TURTLE
TUSCAN
TUSHES
TUSKER
TUSSLE
TUTEES
TUTORS
TUTSIS
TUTTUT
TUXEDO
TVCREW
TVROOM
TVSETS
TVSTAR
TVTIME
TVTRAY
TVWIFE
TWAINS
TWANGS
TWEAKS
TWEEDS
TWEENS
TWEETS
TWEEZE
TWELVE
TWENTY
TWERKS
TWERKS
TWERPS
TWIGGY
TWILLS
TWINES
TWINGE
TWIRLS
TWISTS
TWITCH
TWITTY
TWOCAR
TWOPLY
TYCOBB
TYCOON
TYDBOL
TYLERS
TYPEAB
TYPEAS
TYPIST
TYRANT
TYRION
TYRONE
TYSONS